[TITLE]
 Poormond Network - 24 Time Steps, Day 1

[JUNCTIONS]
;ID       Elev         Demand      Pattern
 4        183.000      0.0000             ;
 9        68.8500      0.0000             ;
 10       166.420      5.6800      demand ;
 42       60.0000      3.6800      demand ;
 104      184.000      0.0000             ;
 164      65.0000      0.0000             ;
 175      65.0000      0.0000             ;
 186      112.180      0.0000             ;
 197      115.000      0.0000             ;
 206      134.990      0.0000             ;
 249      101.000      11.300      demand ;
 264      184.000      0.0000             ;
 284      186.000      0.0000             ;
 312      242.000      2.1300      demand ;
 320      242.000      0.0000             ;
 321      242.000      0.0000             ;
 325      242.000      3.7100      demand ;
 353      185.780      0.0000             ;
 364      217.000      0.0000             ;
 632      69.0000      0.0000             ;
 633      69.0000      0.0000             ;
 634      139.020      0.0000             ;
 635      139.820      0.0000             ;
 636      139.820      0.0000             ;
 637      140.000      1.0000      demand ;
 701      198.330      0.1100      demand ;
 729      202.150      0.0000             ;
 745      177.000      1.4200      demand ;
 753      177.000      0.1000      demand ;
 766      69.7000      0.0000             ;
 768      69.5900      0.0000             ;
 770      69.3900      0.0000             ;
 771      69.0000      0.0000             ;
 1125     184.000      0.0000             ;
 1302     216.650      16.250      demand ;
 1963     70.0000      0.0000             ;
 2009     70.0000      0.0000             ;
 1250     186.000      0.0000             ;
 774      188.000      0.0000             ;
 2010     69.0000      0.0000             ;
 777      100.000      -9.160             ;
 E        203.010      0.0000             ;

[RESERVOIRS]
;ID      Head      Pattern
 O       1.00      reservoir;

[TANKS]
;ID      Elevation      InitLevel      MinLevel      MaxLevel      Diameter     MinVol          VolCurve
 A       184.13000      1.550000       1.020000      3.370000      23.500000    442.410858              ;
 B       216.00000      2.500000       2.030000      3.650000      15.400000    378.118008              ;
 C       258.90000      1.000000       0.500000      2.000000      6.6000000    17.1059720              ;
 D       241.18000      2.000000       1.100000      2.110000      11.800000    120.294724              ;
 F       235.71000      1.000000       0.190000      2.190000      3.6000000    1.93396444              ;

[PIPES]
;ID        Node1     Node2      Length      Diameter      Roughness      MinorLoss      Status
 788       A         4          18.000      150.0         120.00         0.0            Open   ;
 790       4         10         401.00      150.0         120.00         0.0            Open   ;
 793       4         104        18.000      150.0         120.00         0.0            Open   ;
 794       9         42         1087.0      300.0         140.00         0.0            Open   ;
 841       42        164        3002.0      250.0         140.00         0.0            Open   ;
 911       104       206        846.00      152.0         110.00         0.0            Open   ;
 912       104       264        44.000      100.0         100.00         0.0            Open   ;
 993       164       175        18.000      250.0         130.00         0.0            Open   ;
 1020      186       197        5.0000      250.0         140.00         0.0            Open   ;
 1033      164       197        16.000      250.0         137.50         0.0            CV     ;
 1036      197       284        2003.0      250.0         130.00         0.0            Open   ;
 1085      206       249        30.000      76.0          80.000         0.0            Open   ;
 1107      249       634        6.0000      100.0         70.000         0.0            Open   ;
 1153      284       1250       13.000      200.0         130.00         0.0            Open   ;
 1154      1125      312        1261.0      150.0         100.00         0.0            Open   ;
 1178      284       774        18.000      229.0         75.000         0.0            Open   ;
 1196      312       D          15.000      100.0         30.000         0.0            CV     ;
 1208      320       321        7.0000      80.0          90.000         0.0            Open   ;
 1209      320       325        3.0000      150.0         100.00         0.0            Open   ;
 1210      321       312        23.000      150.0         100.00         0.0            CV     ;
 1278      353       364        472.00      200.0         130.00         0.0            Open   ;
 1301      B         1302       10.000      152.0         70.000         0.0            Open   ;
 1304      364       B          7.0000      152.0         70.000         0.0            Open   ;
 1638      632       633        5.0000      300.0         120.00         0.0            Open   ;
 1645      634       635        2.0000      100.0         130.00         0.0            Open   ;
 1653      636       637        1.0000      100.0         120.00         0.0            Open   ;
 1677      2010      770        5.0000      300.0         120.00         0.0            CV     ;
 1740      637       C          4028.0      100.0         130.00         0.0            Open   ;
 1752      321       701        365.00      150.0         140.00         0.0            Open   ;
 1753      701       729        5612.0      152.0         110.00         0.0            Open   ;
 1783      729       E          1591.0      76.0          70.000         0.0            Open   ;
 1793      E         745        444.00      102.0         70.000         0.0            Open   ;
 1832      753       F          1216.0      76.0          87.500         0.0            Open   ;
 1842      766       768        5.0000      300.0         150.00         0.0            Open   ;
 1844      768       770        4.0000      300.0         150.00         0.0            Open   ;
 1848      770       771        5.0000      300.0         150.00         0.0            Open   ;
 1849      771       9          26.000      150.0         100.00         0.0            Open   ;
 1879      774       A          1.0000      150.0         100.00         0.0            Open   ;
 1913      O         632        8.0000      300.0         120.00         0.0            Open   ;
 1964      633       1963       4.0000      150.0         100.00         0.0            Open   ;
 1978      D         320        17.000      150.0         100.00         0.0            Open   ;
 2010      632       2009       4.0000      150.0         100.00         0.0            Open   ;
 p1        633       2010       1.0000      300.0         120.00         0.0            Open   ;
 p2        777       A          20.000      200.0         100.00         0.0            Open   ;

[PUMPS]
;ID      Node1      Node2      Parameters
 1A      2009       766        HEAD 2007 ;
 2A      1963       768        HEAD 2015 ;
 3A      175        186        HEAD 1006 ;
 4B      1250       353        HEAD 1881 ;
 5C      635        636        HEAD 1884 ;
 6D      264        1125       HEAD 1123 ;
 7F      745        753        HEAD 1883 ;

[VALVES]
;ID      Node1      Node2      Diameter      Type      Setting      MinorLoss   

[TAGS]

[DEMANDS]
;Junction      Demand      Pattern      Category

[STATUS]
;ID      Status/Setting

[PATTERNS]
;ID             Multipliers
 demand         1.350000 1.350000 1.450000 1.450000 1.100000 1.100000
 demand         1.020000 1.020000 0.940000 0.940000 1.250000 1.250000
 demand         1.380000 1.380000 1.220000 1.220000 0.850000 0.850000
 demand         0.470000 0.470000 0.400000 0.400000 0.460000 0.460000
 tariff         40.77000 40.77000 60.96000 60.96000 67.51000 67.51000
 tariff         67.45000 67.45000 64.00000 64.00000 67.39000 67.39000
 tariff         60.88000 60.88000 63.81000 63.81000 54.60000 54.60000
 tariff         40.77000 40.77000 40.77000 40.77000 46.43000 46.43000
 reservoir      70.33000 70.33000 69.42000 69.42000 70.33000 70.33000
 reservoir      70.33000 70.33000 70.33000 70.33000 70.29000 70.29000
 reservoir      70.33000 70.33000 70.42000 70.42000 69.64000 69.64000
 reservoir      69.68000 69.68000 70.37000 70.37000 70.33000 70.33000

[CURVES]
;ID        X-Value      Y-Value
 1006      0.00000      38.0000
 1006      10.0000      37.0000
 1006      20.0000      36.0000
 1006      30.0000      34.0000
 1006      40.0000      31.0000
 1006      50.0000      29.0000
 1006      60.0000      27.0000
 1006      70.0000      25.0000
 1123      0.00000      88.0000
 1123      2.78000      87.0000
 1123      5.56000      84.0000
 1123      8.53000      76.0000
 1123      11.1100      63.0000
 1123      13.8900      47.0000
 1641      0.00000      146.000
 1641      10.0000      145.000
 1641      15.0000      144.000
 1641      20.0000      143.000
 1641      25.0000      141.000
 1641      30.0000      138.000
 1641      35.0000      133.000
 1641      40.0000      127.000
 1641      45.0000      120.000
 1641      50.0000      108.000
 1659      0.00000      122.000
 1659      2.22000      120.000
 1659      2.78000      118.000
 1659      3.33000      115.000
 1659      3.89000      110.000
 1659      4.44000      105.000
 1659      5.00000      96.0000
 1659      5.55000      85.0000
 1659      6.11000      72.0000
 1691      0.00000      129.000
 1691      10.0000      128.000
 1691      15.0000      127.000
 1691      20.0000      126.000
 1691      25.0000      124.000
 1691      30.0000      121.000
 1691      35.0000      116.000
 1691      40.0000      110.000
 1691      45.0000      103.000
 1691      50.0000      91.0000 
 1881      0.00000      40.0000
 1881      6.94000      38.5000
 1881      13.8800      38.0000
 1881      20.8300      37.5000
 1881      27.7700      36.0000
 1881      34.7200      35.0000
 1881      41.6600      32.5000
 1881      48.6100      30.0000
 1881      55.5500      27.5000
 1881      111.500      7.50000
 1883      0.00000      37.0000
 1883      1.00000      36.9990
 1883      2.00000      36.9980
 1883      3.00000      36.9970
 1883      4.00000      36.9960
 1883      5.00000      36.9950
 1883      6.00000      36.9940
 1884      0.00000      122.000
 1884      2.22000      120.000
 1884      2.78000      118.000
 1884      3.33000      115.000
 1884      3.89000      110.000
 1884      4.44000      105.000
 1884      5.00000      96.0000
 1884      5.55000      85.0000
 1884      6.11000      72.0000
 1948      0.00000      20.0000
 1948      0.40000      19.0000
 1948      0.80000      16.0000
 1948      1.20000      13.0000
 1948      1.60000      11.0000
 1948      2.00000      7.00000
 2007      0.00000      129.000
 2007      10.0000      128.000
 2007      15.0000      127.000
 2007      20.0000      126.000
 2007      25.0000      124.000
 2007      30.0000      121.000
 2007      35.0000      116.000
 2007      40.0000      110.000
 2007      45.0000      103.000
 2007      50.0000      91.0000
 2015      0.00000      129.000
 2015      10.0000      128.000
 2015      15.0000      127.000
 2015      20.0000      126.000
 2015      25.0000      124.000
 2015      30.0000      121.000
 2015      35.0000      116.000
 2015      40.0000      110.000
 2015      45.0000      103.000
 2015      50.0000      91.0000

[CONTROLS]

[RULES]

[ENERGY]
 Global Efficiency      100.0
 Global Price           1.00
 Demand Charge          0.0
 Pump   7F              Pattern      tariff
 Pump   2A              Pattern      tariff
 Pump   5C              Pattern      tariff
 Pump   6D              Pattern      tariff
 Pump   3A              Pattern      tariff
 Pump   4B              Pattern      tariff
 Pump   1A              Pattern      tariff

[EMITTERS]
;Junction      Coefficient

[QUALITY]
;Node      InitQual

[SOURCES]
;Node      Type      Quality      Pattern

[REACTIONS]

[MIXING]
;Tank      Model

[TIMES]
 Duration                24:00
 Hydraulic Timestep      1:00
 Quality Timestep        1:00
 Pattern Timestep        1:00
 Pattern Start           0:00
 Report Timestep         1:00
 Report Start            0:00
 Start ClockTime         12 AM
 Statistic               NONE

[REPORT]
 Status       Yes
 Summary      No
 Page         0

[OPTIONS]
 Units                  LPS
 Headloss               H-W
 Specific Gravity       1.0
 Viscosity              1.0
 Trials                 200
 Accuracy               0.00001
 Unbalanced             Continue 100
 Pattern                1
 Demand Multiplier      1.0
 Emitter Exponent       0.5
 Quality                None mg/L
 Diffusivity            1.0
 Tolerance              0.001

[COORDINATES]
;Node      X-Coord      Y-Coord

[VERTICES]
;Link      X-Coord      Y-Coord

[LABELS]
;X-Coord      Y-Coord      Label & Anchor Node

[BACKDROP]

[END]
